Referencia/OpenDSS/Examples/InverterModels/PVSystem2/InvControl2/MonitoredVoltage/Mon_voltage_MAX_Mix_avg_VVDRC_sec8_VLN_Node.Txt

LINE-GROUND and LINE-LINE VOLTAGES BY BUS & NODE

Bus  Node    VLN (kV)   Angle      pu     Base kV    Node-Node   VLL (kV)  Angle      pu

A .. 1       8.2639 /_    8.5    1.0372    13.800        1-2     14.316 /_   38.5    1.0374
   - 2       8.2711 /_ -111.5    1.0381    13.800        2-3     14.318 /_  -81.4    1.0375
   - 3       8.2656 /_  128.6    1.0374    13.800        3-1     14.321 /_  158.5    1.0378
B .. 1       8.3206 /_   11.2    1.0443    13.800        1-2     14.372 /_   41.0    1.0415
   - 2        8.256 /_ -109.0    1.0362    13.800        2-3     14.258 /_  -78.9    1.0332
   - 3       8.2319 /_  131.3    1.0332    13.800        3-1     14.339 /_  161.5    1.0391
C .. 1      0.29029 /_   11.3    1.0475     0.480        1-2    0.50144 /_   41.1    1.0447
   - 2      0.28806 /_ -108.9    1.0394     0.480        2-3    0.49747 /_  -78.8    1.0364
   - 3      0.28722 /_  131.4    1.0364     0.480        3-1    0.50029 /_  161.5    1.0423
